**************************************
**************************************
**************************************
**
** A=700, n=0.2, Y=220
*MATERIAL, NAME=FECC_FI8_UC06mms
*ELASTIC
 130.e3, 0.34
*DENSITY
 8.96e-9
*DAMAGE INITIATION, criterion=DUCTILE, dependencies=1
 1000.00 ,0
 100.00 ,0.01
 50.00 ,0.02
 33.33 ,0.03
 25.00 ,0.04
 20.00 ,0.05
 16.67 ,0.06
 14.29 ,0.07
 12.50 ,0.08
 11.11 ,0.09
 10.00 ,0.1
 9.09 ,0.11
 8.33 ,0.12
 7.69 ,0.13
 7.14 ,0.14
 6.67 ,0.15
 6.25 ,0.16
 5.88 ,0.17
 5.56 ,0.18
 5.26 ,0.19
** ... 281 like lines cut
** *damage evolution, TYPE=DISPLACEMENT, SOFTENING=LINEAR
**  0.1e-3
*PLASTIC
 220.00, 0.000 
 452.01, 0.004 
 471.61, 0.006 
 486.51, 0.008 
 498.68, 0.010 
 509.02, 0.012 
 518.07, 0.014 
 526.14, 0.016 
 533.44, 0.018 
 540.11, 0.020 
 546.27, 0.022 
 552.00, 0.024 
 557.36, 0.026 
 562.40, 0.028 
 567.15, 0.030 
 571.66, 0.032 
 575.95, 0.034 
 580.05, 0.036 
 583.96, 0.038 
 587.71, 0.040 
** ... 105 like lines cut
**************************************
**************************************
**************************************
**
** A=320, n=0.2, Y=350
*MATERIAL, NAME=FECC_FI8_UC06mms_240610
*ELASTIC
 100.e3, 0.34
*DENSITY
 8.96e-9
*DAMAGE INITIATION, criterion=DUCTILE, dependencies=1
 1000.00 ,0
 100.00 ,0.01
 50.00 ,0.02
 33.33 ,0.03
 25.00 ,0.04
 20.00 ,0.05
 16.67 ,0.06
 14.29 ,0.07
 12.50 ,0.08
 11.11 ,0.09
 10.00 ,0.1
 9.09 ,0.11
 8.33 ,0.12
 7.69 ,0.13
 7.14 ,0.14
 6.67 ,0.15
 6.25 ,0.16
 5.88 ,0.17
 5.56 ,0.18
 5.26 ,0.19
** ... 281 like lines cut
** *damage evolution, TYPE=DISPLACEMENT, SOFTENING=LINEAR
**  0.1e-3
*PLASTIC
 350.0, 0.000
 477.4, 0.010
 496.3, 0.020
 508.7, 0.030
 518.1, 0.040
 525.8, 0.050
 551.9, 0.100
 581.9, 0.200
 601.5, 0.300
 616.4, 0.400
 628.6, 0.500
 638.9, 0.600
 648.0, 0.700
 656.0, 0.800
 663.3, 0.900
 670.0, 1.000
 676.2, 1.100
 681.9, 1.200
 687.2, 1.300
 692.3, 1.400
** ... 30 like lines cut
**************************************
**************************************
**************************************
**
** A=300, n=0.1, Y=280
*MATERIAL, NAME=FECC_FI8_UC06mms_240613
*ELASTIC
 100.e3, 0.34
*DENSITY
 8.96e-9
*DAMAGE INITIATION, criterion=DUCTILE, dependencies=1
 1000.00 ,0
 100.00 ,0.01
 50.00 ,0.02
 33.33 ,0.03
 25.00 ,0.04
 20.00 ,0.05
 16.67 ,0.06
 14.29 ,0.07
 12.50 ,0.08
 11.11 ,0.09
 10.00 ,0.1
 9.09 ,0.11
 8.33 ,0.12
 7.69 ,0.13
 7.14 ,0.14
 6.67 ,0.15
 6.25 ,0.16
 5.88 ,0.17
 5.56 ,0.18
 5.26 ,0.19
** ... 281 like lines cut
** *damage evolution, TYPE=DISPLACEMENT, SOFTENING=LINEAR
**  0.1e-3
*PLASTIC
 280.0, 0.000 
 469.3, 0.010 
 482.9, 0.020 
 491.3, 0.030 
 497.4, 0.040 
 502.3, 0.050 
 518.3, 0.100 
 535.4, 0.200 
 546.0, 0.300 
 553.7, 0.400 
 559.9, 0.500 
 565.1, 0.600 
 569.5, 0.700 
 573.4, 0.800 
 576.9, 0.900 
 580.0, 1.000 
 582.9, 1.100 
 585.5, 1.200 
 588.0, 1.300 
 590.3, 1.400 
** ... 86 like lines cut
**************************************
**************************************
**************************************
**
** A=300, n=0.24, Y=350
*MATERIAL, NAME=FECC_FI8_UC06mms_240618
*ELASTIC
 100.e3, 0.34
*DENSITY
 8.96e-9
*DAMAGE INITIATION, criterion=DUCTILE, dependencies=1
 1000.00 ,0
 100.00 ,0.01
 50.00 ,0.02
 33.33 ,0.03
 25.00 ,0.04
 20.00 ,0.05
 16.67 ,0.06
 14.29 ,0.07
 12.50 ,0.08
 11.11 ,0.09
 10.00 ,0.1
 9.09 ,0.11
 8.33 ,0.12
 7.69 ,0.13
 7.14 ,0.14
 6.67 ,0.15
 6.25 ,0.16
 5.88 ,0.17
 5.56 ,0.18
 5.26 ,0.19
** ... 281 like lines cut
** *damage evolution, TYPE=DISPLACEMENT, SOFTENING=LINEAR
**  0.1e-3
*PLASTIC
 350.0, 0.000 
 449.3, 0.010 
 467.3, 0.020 
 479.3, 0.030 
 488.6, 0.040 
 496.2, 0.050 
 522.6, 0.100 
 553.9, 0.200 
 574.7, 0.300 
 590.8, 0.400 
 604.0, 0.500 
 615.4, 0.600 
 625.4, 0.700 
 634.4, 0.800 
 642.5, 0.900 
 650.0, 1.000 
 656.9, 1.100 
 663.4, 1.200 
 669.5, 1.300 
 675.2, 1.400 
** ... 86 like lines cut
**************************************
**************************************
**************************************
**
** A=380, n=0.30, Y=360
*MATERIAL, NAME=FECC_FI8_UC06mms_240619
*ELASTIC
 100.e3, 0.34
*DENSITY
 8.96e-9
*DAMAGE INITIATION, criterion=DUCTILE, dependencies=1
 1000.00 ,0
 100.00 ,0.01
 50.00 ,0.02
 33.33 ,0.03
 25.00 ,0.04
 20.00 ,0.05
 16.67 ,0.06
 14.29 ,0.07
 12.50 ,0.08
 11.11 ,0.09
 10.00 ,0.1
 9.09 ,0.11
 8.33 ,0.12
 7.69 ,0.13
 7.14 ,0.14
 6.67 ,0.15
 6.25 ,0.16
 5.88 ,0.17
 5.56 ,0.18
 5.26 ,0.19
** ... 281 like lines cut
** *damage evolution, TYPE=DISPLACEMENT, SOFTENING=LINEAR
**  0.1e-3
*PLASTIC
 360.0, 0.000 
 455.5, 0.010 
 477.5, 0.020 
 492.7, 0.030 
 504.7, 0.040 
 514.7, 0.050 
 550.5, 0.100 
 594.5, 0.200 
 624.8, 0.300 
 648.7, 0.400 
 668.7, 0.500 
 686.0, 0.600 
 701.4, 0.700 
 715.4, 0.800 
 728.2, 0.900 
 740.0, 1.000 
 751.0, 1.100 
 761.4, 1.200 
 771.1, 1.300 
 780.4, 1.400 
** ... 86 like lines cut
**************************************
**************************************
**************************************
**
** A=300, n=0.30, Y=340
*MATERIAL, NAME=FECC_FI8_UC06mms_240620
*ELASTIC
 100.e3, 0.34
*DENSITY
 8.96e-9
*DAMAGE INITIATION, criterion=DUCTILE, dependencies=1
 1000.00 ,0
 100.00 ,0.01
 50.00 ,0.02
 33.33 ,0.03
 25.00 ,0.04
 20.00 ,0.05
 16.67 ,0.06
 14.29 ,0.07
 12.50 ,0.08
 11.11 ,0.09
 10.00 ,0.1
 9.09 ,0.11
 8.33 ,0.12
 7.69 ,0.13
 7.14 ,0.14
 6.67 ,0.15
 6.25 ,0.16
 5.88 ,0.17
 5.56 ,0.18
 5.26 ,0.19
** ... 281 like lines cut
** *damage evolution, TYPE=DISPLACEMENT, SOFTENING=LINEAR
**  0.1e-3
*PLASTIC
 340.0, 0.000 
 415.4, 0.010 
 432.8, 0.020 
 444.8, 0.030 
 454.2, 0.040 
 462.1, 0.050 
 490.4, 0.100 
 525.1, 0.200 
 549.1, 0.300 
 567.9, 0.400 
 583.7, 0.500 
 597.4, 0.600 
 609.6, 0.700 
 620.6, 0.800 
 630.7, 0.900 
 640.0, 1.000 
 648.7, 1.100 
 656.9, 1.200 
 664.6, 1.300 
 671.9, 1.400 
** ... 86 like lines cut
**************************************
**************************************
**************************************
**
** A=250, n=0.30, Y=380
*MATERIAL, NAME=FECC_FI8_UC06mms_240620_2
*ELASTIC
 100.e3, 0.34
*DENSITY
 8.96e-9
*DAMAGE INITIATION, criterion=DUCTILE, dependencies=1
 1000.00 ,0
 100.00 ,0.01
 50.00 ,0.02
 33.33 ,0.03
 25.00 ,0.04
 20.00 ,0.05
 16.67 ,0.06
 14.29 ,0.07
 12.50 ,0.08
 11.11 ,0.09
 10.00 ,0.1
 9.09 ,0.11
 8.33 ,0.12
 7.69 ,0.13
 7.14 ,0.14
 6.67 ,0.15
 6.25 ,0.16
 5.88 ,0.17
 5.56 ,0.18
 5.26 ,0.19
** ... 281 like lines cut
** *damage evolution, TYPE=DISPLACEMENT, SOFTENING=LINEAR
**  0.1e-3
*PLASTIC
 380.0, 0.000 
 442.8, 0.010 
 457.3, 0.020 
 467.3, 0.030 
 475.2, 0.040 
 481.8, 0.050 
 505.3, 0.100 
 534.3, 0.200 
 554.2, 0.300 
 569.9, 0.400 
 583.1, 0.500 
 594.5, 0.600 
 604.6, 0.700 
 613.8, 0.800 
 622.2, 0.900 
 630.0, 1.000 
 637.3, 1.100 
 644.1, 1.200 
 650.5, 1.300 
 656.6, 1.400 
** ... 86 like lines cut
**************************************
**************************************
**************************************
**************************************
**************************************
**
*MATERIAL, NAME=FECC_FI8_UW06mms
*ELASTIC
 130.e3, 0.34
*DENSITY
 8.96e-9
*DAMAGE INITIATION, criterion=DUCTILE, dependencies=1
 1000.00 ,0
 100.00 ,0.01
 50.00 ,0.02
 33.33 ,0.03
 25.00 ,0.04
 20.00 ,0.05
 16.67 ,0.06
 14.29 ,0.07
 12.50 ,0.08
 11.11 ,0.09
 10.00 ,0.1
 9.09 ,0.11
 8.33 ,0.12
 7.69 ,0.13
 7.14 ,0.14
 6.67 ,0.15
 6.25 ,0.16
 5.88 ,0.17
 5.56 ,0.18
 5.26 ,0.19
** ... 281 like lines cut
** *damage evolution, TYPE=DISPLACEMENT, SOFTENING=LINEAR
**  0.1e-3
*PLASTIC
 380.00, 0.000 
 466.18, 0.004 
 473.46, 0.006 
 478.99, 0.008 
 483.51, 0.010 
 487.35, 0.012 
 490.71, 0.014 
 493.71, 0.016 
 496.42, 0.018 
 498.90, 0.020 
 501.19, 0.022 
 503.31, 0.024 
 505.30, 0.026 
 507.18, 0.028 
 508.94, 0.030 
 510.62, 0.032 
 512.21, 0.034 
 513.73, 0.036 
 515.19, 0.038 
 516.58, 0.040 
** ... 106 like lines cut
