** ***************************************************************************
**   Written by : Femap
**   Version    : 2020.2.2
**   From Model : F:\active\7v\b01\assets\mesh_test.v2.modfem
**   Date       : Fri Jan 30 11:14:18 2026
** ***************************************************************************
** 
*HEADING
ABAQUS ê√âêÕ âêÕÉZÉbÉg
*NODE, NSET=GLOBAL
       1,          0.,          0.,          0.
       2,          0.,   0.3333333,          0.
       3,          0.,   0.6666667,          0.
       4,          0.,          1.,          0.
       5,   0.3333333,          1.,          0.
       6,   0.6666667,          1.,          0.
       7,          1.,          1.,          0.
       8,          1.,   0.6666667,          0.
       9,          1.,   0.3333333,          0.
      10,          1.,          0.,          0.
      11,   0.6666667,          0.,          0.
      12,   0.3333333,          0.,          0.
      13,   0.3333333,   0.3333333,          0.
      14,   0.3333333,   0.6666667,          0.
      15,   0.6666667,   0.3333333,          0.
      16,   0.6666667,   0.6666667,          0.
      17,          0.,          0.,       0.333
      18,          0.,   0.3333333,       0.333
      19,          0.,   0.6666667,       0.333
      20,          0.,          1.,       0.333
** ... 548 like lines cut
*ELEMENT, TYPE=C3D8, ELSET=Pwire
     10,     17,     18,     29,     28,      1,      2,     13,     12
     11,     18,     19,     30,     29,      2,      3,     14,     13
*ELEMENT, TYPE=C3D8, ELSET=Pwire_coh
     12,     19,     20,     21,     30,      3,      4,      5,     14
*ELEMENT, TYPE=C3D8, ELSET=Pwire
     13,     28,     29,     31,     27,     12,     13,     15,     11
     14,     29,     30,     32,     31,     13,     14,     16,     15
*ELEMENT, TYPE=C3D8, ELSET=Pwire_coh
     15,     30,     21,     22,     32,     14,      5,      6,     16
*ELEMENT, TYPE=C3D8, ELSET=Pwire
     16,     27,     31,     25,     26,     11,     15,      9,     10
     17,     31,     32,     24,     25,     15,     16,      8,      9
*ELEMENT, TYPE=C3D8, ELSET=Pwire_coh
     18,     32,     22,     23,     24,     16,      6,      7,      8
*ELEMENT, TYPE=C3D8, ELSET=Pwire
     19,     33,     34,     45,     44,     17,     18,     29,     28
     20,     34,     35,     46,     45,     18,     19,     30,     29
*ELEMENT, TYPE=C3D8, ELSET=Pwire_coh
     21,     35,     36,     37,     46,     19,     20,     21,     30
*ELEMENT, TYPE=C3D8, ELSET=Pwire
     22,     44,     45,     47,     43,     28,     29,     31,     27
     23,     45,     46,     48,     47,     29,     30,     32,     31
*ELEMENT, TYPE=C3D8, ELSET=Pwire_coh
     24,     46,     37,     38,     48,     30,     21,     22,     32
*ELEMENT, TYPE=C3D8, ELSET=Pwire
     25,     43,     47,     41,     42,     27,     31,     25,     26
     26,     47,     48,     40,     41,     31,     32,     24,     25
*ELEMENT, TYPE=C3D8, ELSET=Pwire_coh
     27,     48,     38,     39,     40,     32,     22,     23,     24
*ELEMENT, TYPE=C3D8, ELSET=Pwire
     28,     49,     50,     61,     60,     33,     34,     45,     44
     29,     50,     51,     62,     61,     34,     35,     46,     45
*ELEMENT, TYPE=C3D8, ELSET=Pwire_coh
     30,     51,     52,     53,     62,     35,     36,     37,     46
*ELEMENT, TYPE=C3D8, ELSET=Pwire
     31,     60,     61,     63,     59,     44,     45,     47,     43
     32,     61,     62,     64,     63,     45,     46,     48,     47
*ELEMENT, TYPE=C3D8, ELSET=Pwire_coh
     33,     62,     53,     54,     64,     46,     37,     38,     48
*ELEMENT, TYPE=C3D8, ELSET=Pwire
     34,     59,     63,     57,     58,     43,     47,     41,     42
     35,     63,     64,     56,     57,     47,     48,     40,     41
*ELEMENT, TYPE=C3D8, ELSET=Pwire_coh
     36,     64,     54,     55,     56,     48,     38,     39,     40
*ELEMENT, TYPE=C3D8, ELSET=Pwire
     37,     65,     66,     77,     76,     49,     50,     61,     60
     38,     66,     67,     78,     77,     50,     51,     62,     61
*ELEMENT, TYPE=C3D8, ELSET=Pwire_coh
     39,     67,     68,     69,     78,     51,     52,     53,     62
*ELEMENT, TYPE=C3D8, ELSET=Pwire
     40,     76,     77,     79,     75,     60,     61,     63,     59
     41,     77,     78,     80,     79,     61,     62,     64,     63
*ELEMENT, TYPE=C3D8, ELSET=Pwire_coh
     42,     78,     69,     70,     80,     62,     53,     54,     64
*ELEMENT, TYPE=C3D8, ELSET=Pwire
     43,     75,     79,     73,     74,     59,     63,     57,     58
     44,     79,     80,     72,     73,     63,     64,     56,     57
*ELEMENT, TYPE=C3D8, ELSET=Pwire_coh
     45,     80,     70,     71,     72,     64,     54,     55,     56
*ELEMENT, TYPE=C3D8, ELSET=Pwire
     46,     81,     82,     93,     92,     65,     66,     77,     76
     47,     82,     83,     94,     93,     66,     67,     78,     77
*ELEMENT, TYPE=C3D8, ELSET=Pwire_coh
     48,     83,     84,     85,     94,     67,     68,     69,     78
*ELEMENT, TYPE=C3D8, ELSET=Pwire
     49,     92,     93,     95,     91,     76,     77,     79,     75
     50,     93,     94,     96,     95,     77,     78,     80,     79
*ELEMENT, TYPE=C3D8, ELSET=Pwire_coh
     51,     94,     85,     86,     96,     78,     69,     70,     80
*ELEMENT, TYPE=C3D8, ELSET=Pwire
     52,     91,     95,     89,     90,     75,     79,     73,     74
     53,     95,     96,     88,     89,     79,     80,     72,     73
*ELEMENT, TYPE=C3D8, ELSET=Pwire_coh
     54,     96,     86,     87,     88,     80,     70,     71,     72
*ELEMENT, TYPE=C3D8, ELSET=Pwire
     55,     97,     98,    109,    108,     81,     82,     93,     92
     56,     98,     99,    110,    109,     82,     83,     94,     93
*ELEMENT, TYPE=C3D8, ELSET=Pwire_coh
     57,     99,    100,    101,    110,     83,     84,     85,     94
*ELEMENT, TYPE=C3D8, ELSET=Pwire
     58,    108,    109,    111,    107,     92,     93,     95,     91
     59,    109,    110,    112,    111,     93,     94,     96,     95
*ELEMENT, TYPE=C3D8, ELSET=Pwire_coh
     60,    110,    101,    102,    112,     94,     85,     86,     96
*ELEMENT, TYPE=C3D8, ELSET=Pwire
     61,    107,    111,    105,    106,     91,     95,     89,     90
     62,    111,    112,    104,    105,     95,     96,     88,     89
*ELEMENT, TYPE=C3D8, ELSET=Pwire_coh
     63,    112,    102,    103,    104,     96,     86,     87,     88
*ELEMENT, TYPE=C3D8, ELSET=Pwire
     64,    113,    114,    125,    124,     97,     98,    109,    108
     65,    114,    115,    126,    125,     98,     99,    110,    109
*ELEMENT, TYPE=C3D8, ELSET=Pwire_coh
     66,    115,    116,    117,    126,     99,    100,    101,    110
*ELEMENT, TYPE=C3D8, ELSET=Pwire
     67,    124,    125,    127,    123,    108,    109,    111,    107
     68,    125,    126,    128,    127,    109,    110,    112,    111
*ELEMENT, TYPE=C3D8, ELSET=Pwire_coh
     69,    126,    117,    118,    128,    110,    101,    102,    112
*ELEMENT, TYPE=C3D8, ELSET=Pwire
     70,    123,    127,    121,    122,    107,    111,    105,    106
     71,    127,    128,    120,    121,    111,    112,    104,    105
*ELEMENT, TYPE=C3D8, ELSET=Pwire_coh
     72,    128,    118,    119,    120,    112,    102,    103,    104
*ELEMENT, TYPE=C3D8, ELSET=Pwire
     73,    129,    130,    141,    140,    113,    114,    125,    124
     74,    130,    131,    142,    141,    114,    115,    126,    125
*ELEMENT, TYPE=C3D8, ELSET=Pwire_coh
     75,    131,    132,    133,    142,    115,    116,    117,    126
*ELEMENT, TYPE=C3D8, ELSET=Pwire
     76,    140,    141,    143,    139,    124,    125,    127,    123
     77,    141,    142,    144,    143,    125,    126,    128,    127
*ELEMENT, TYPE=C3D8, ELSET=Pwire_coh
     78,    142,    133,    134,    144,    126,    117,    118,    128
*ELEMENT, TYPE=C3D8, ELSET=Pwire
     79,    139,    143,    137,    138,    123,    127,    121,    122
     80,    143,    144,    136,    137,    127,    128,    120,    121
*ELEMENT, TYPE=C3D8, ELSET=Pwire_coh
     81,    144,    134,    135,    136,    128,    118,    119,    120
*ELEMENT, TYPE=C3D8, ELSET=Pwire
     82,    145,    146,    157,    156,    129,    130,    141,    140
     83,    146,    147,    158,    157,    130,    131,    142,    141
*ELEMENT, TYPE=C3D8, ELSET=Pwire_coh
     84,    147,    148,    149,    158,    131,    132,    133,    142
*ELEMENT, TYPE=C3D8, ELSET=Pwire
     85,    156,    157,    159,    155,    140,    141,    143,    139
     86,    157,    158,    160,    159,    141,    142,    144,    143
*ELEMENT, TYPE=C3D8, ELSET=Pwire_coh
     87,    158,    149,    150,    160,    142,    133,    134,    144
*ELEMENT, TYPE=C3D8, ELSET=Pwire
     88,    155,    159,    153,    154,    139,    143,    137,    138
     89,    159,    160,    152,    153,    143,    144,    136,    137
*ELEMENT, TYPE=C3D8, ELSET=Pwire_coh
     90,    160,    150,    151,    152,    144,    134,    135,    136
*ELEMENT, TYPE=C3D8, ELSET=Pwire
     91,    161,    162,    173,    172,    145,    146,    157,    156
     92,    162,    163,    174,    173,    146,    147,    158,    157
*ELEMENT, TYPE=C3D8, ELSET=Pwire_coh
     93,    163,    164,    165,    174,    147,    148,    149,    158
*ELEMENT, TYPE=C3D8, ELSET=Pwire
     94,    172,    173,    175,    171,    156,    157,    159,    155
     95,    173,    174,    176,    175,    157,    158,    160,    159
*ELEMENT, TYPE=C3D8, ELSET=Pwire_coh
     96,    174,    165,    166,    176,    158,    149,    150,    160
*ELEMENT, TYPE=C3D8, ELSET=Pwire
     97,    171,    175,    169,    170,    155,    159,    153,    154
     98,    175,    176,    168,    169,    159,    160,    152,    153
*ELEMENT, TYPE=C3D8, ELSET=Pwire_coh
     99,    176,    166,    167,    168,    160,    150,    151,    152
*ELEMENT, TYPE=C3D8, ELSET=Pwire
    100,    177,    178,    189,    188,    161,    162,    173,    172
    101,    178,    179,    190,    189,    162,    163,    174,    173
*ELEMENT, TYPE=C3D8, ELSET=Pwire_coh
    102,    179,    180,    181,    190,    163,    164,    165,    174
*ELEMENT, TYPE=C3D8, ELSET=Pwire
    103,    188,    189,    191,    187,    172,    173,    175,    171
    104,    189,    190,    192,    191,    173,    174,    176,    175
*ELEMENT, TYPE=C3D8, ELSET=Pwire_coh
    105,    190,    181,    182,    192,    174,    165,    166,    176
*ELEMENT, TYPE=C3D8, ELSET=Pwire
    106,    187,    191,    185,    186,    171,    175,    169,    170
    107,    191,    192,    184,    185,    175,    176,    168,    169
*ELEMENT, TYPE=C3D8, ELSET=Pwire_coh
    108,    192,    182,    183,    184,    176,    166,    167,    168
*ELEMENT, TYPE=C3D8, ELSET=Pwire
    109,    193,    194,    205,    204,    177,    178,    189,    188
    110,    194,    195,    206,    205,    178,    179,    190,    189
*ELEMENT, TYPE=C3D8, ELSET=Pwire_coh
    111,    195,    196,    197,    206,    179,    180,    181,    190
*ELEMENT, TYPE=C3D8, ELSET=Pwire
    112,    204,    205,    207,    203,    188,    189,    191,    187
    113,    205,    206,    208,    207,    189,    190,    192,    191
*ELEMENT, TYPE=C3D8, ELSET=Pwire_coh
    114,    206,    197,    198,    208,    190,    181,    182,    192
*ELEMENT, TYPE=C3D8, ELSET=Pwire
    115,    203,    207,    201,    202,    187,    191,    185,    186
    116,    207,    208,    200,    201,    191,    192,    184,    185
*ELEMENT, TYPE=C3D8, ELSET=Pwire_coh
    117,    208,    198,    199,    200,    192,    182,    183,    184
*ELEMENT, TYPE=C3D8, ELSET=Pwire
    118,    209,    210,    221,    220,    193,    194,    205,    204
    119,    210,    211,    222,    221,    194,    195,    206,    205
*ELEMENT, TYPE=C3D8, ELSET=Pwire_coh
    120,    211,    212,    213,    222,    195,    196,    197,    206
*ELEMENT, TYPE=C3D8, ELSET=Pwire
    121,    220,    221,    223,    219,    204,    205,    207,    203
    122,    221,    222,    224,    223,    205,    206,    208,    207
*ELEMENT, TYPE=C3D8, ELSET=Pwire_coh
    123,    222,    213,    214,    224,    206,    197,    198,    208
*ELEMENT, TYPE=C3D8, ELSET=Pwire
    124,    219,    223,    217,    218,    203,    207,    201,    202
    125,    223,    224,    216,    217,    207,    208,    200,    201
*ELEMENT, TYPE=C3D8, ELSET=Pwire_coh
    126,    224,    214,    215,    216,    208,    198,    199,    200
*ELEMENT, TYPE=C3D8, ELSET=Pwire
    127,    225,    226,    237,    236,    209,    210,    221,    220
    128,    226,    227,    238,    237,    210,    211,    222,    221
*ELEMENT, TYPE=C3D8, ELSET=Pwire_coh
    129,    227,    228,    229,    238,    211,    212,    213,    222
*ELEMENT, TYPE=C3D8, ELSET=Pwire
    130,    236,    237,    239,    235,    220,    221,    223,    219
    131,    237,    238,    240,    239,    221,    222,    224,    223
*ELEMENT, TYPE=C3D8, ELSET=Pwire_coh
    132,    238,    229,    230,    240,    222,    213,    214,    224
*ELEMENT, TYPE=C3D8, ELSET=Pwire
    133,    235,    239,    233,    234,    219,    223,    217,    218
    134,    239,    240,    232,    233,    223,    224,    216,    217
*ELEMENT, TYPE=C3D8, ELSET=Pwire_coh
    135,    240,    230,    231,    232,    224,    214,    215,    216
*ELEMENT, TYPE=C3D8, ELSET=Pwire
    136,    241,    242,    253,    252,    225,    226,    237,    236
    137,    242,    243,    254,    253,    226,    227,    238,    237
*ELEMENT, TYPE=C3D8, ELSET=Pwire_coh
    138,    243,    244,    245,    254,    227,    228,    229,    238
*ELEMENT, TYPE=C3D8, ELSET=Pwire
    139,    252,    253,    255,    251,    236,    237,    239,    235
    140,    253,    254,    256,    255,    237,    238,    240,    239
*ELEMENT, TYPE=C3D8, ELSET=Pwire_coh
    141,    254,    245,    246,    256,    238,    229,    230,    240
*ELEMENT, TYPE=C3D8, ELSET=Pwire
    142,    251,    255,    249,    250,    235,    239,    233,    234
    143,    255,    256,    248,    249,    239,    240,    232,    233
*ELEMENT, TYPE=C3D8, ELSET=Pwire_coh
    144,    256,    246,    247,    248,    240,    230,    231,    232
*ELEMENT, TYPE=C3D8, ELSET=Pwire
    145,    257,    258,    269,    268,    241,    242,    253,    252
    146,    258,    259,    270,    269,    242,    243,    254,    253
    147,    259,    260,    261,    270,    243,    244,    245,    254
    148,    268,    269,    271,    267,    252,    253,    255,    251
    149,    269,    270,    272,    271,    253,    254,    256,    255
    150,    270,    261,    262,    272,    254,    245,    246,    256
    151,    267,    271,    265,    266,    251,    255,    249,    250
    152,    271,    272,    264,    265,    255,    256,    248,    249
    153,    272,    262,    263,    264,    256,    246,    247,    248
    154,    273,    274,    285,    284,    257,    258,    269,    268
    155,    274,    275,    286,    285,    258,    259,    270,    269
    156,    275,    276,    277,    286,    259,    260,    261,    270
    157,    284,    285,    287,    283,    268,    269,    271,    267
    158,    285,    286,    288,    287,    269,    270,    272,    271
    159,    286,    277,    278,    288,    270,    261,    262,    272
    160,    283,    287,    281,    282,    267,    271,    265,    266
    161,    287,    288,    280,    281,    271,    272,    264,    265
    162,    288,    278,    279,    280,    272,    262,    263,    264
    163,    289,    290,    301,    300,    273,    274,    285,    284
    164,    290,    291,    302,    301,    274,    275,    286,    285
** ... 25 like lines cut
*ELEMENT, TYPE=C3D8, ELSET=Pcover_coh
    550,    809,    810,    806,    805,    845,    846,    842,    841
    551,    810,    811,    807,    806,    846,    847,    843,    842
    552,    811,    812,    808,    807,    847,    848,    844,    843
    553,    813,    814,    810,    809,    849,    850,    846,    845
    554,    814,    815,    811,    810,    850,    851,    847,    846
    555,    815,    816,    812,    811,    851,    852,    848,    847
    556,    817,    818,    814,    813,    853,    854,    850,    849
    557,    818,    819,    815,    814,    854,    855,    851,    850
    558,    819,    820,    816,    815,    855,    856,    852,    851
    559,    821,    822,    818,    817,    857,    858,    854,    853
    560,    822,    823,    819,    818,    858,    859,    855,    854
    561,    823,    824,    820,    819,    859,    860,    856,    855
    562,    825,    826,    822,    821,    861,    862,    858,    857
    563,    826,    827,    823,    822,    862,    863,    859,    858
    564,    827,    828,    824,    823,    863,    864,    860,    859
    565,    829,    830,    826,    825,    865,    866,    862,    861
    566,    830,    831,    827,    826,    866,    867,    863,    862
    567,    831,    832,    828,    827,    867,    868,    864,    863
    568,    833,    834,    830,    829,    869,    870,    866,    865
    569,    834,    835,    831,    830,    870,    871,    867,    866
** ... 25 like lines cut
*ELEMENT, TYPE=C3D8, ELSET=Pcover
    595,    260,    261,    782,    781,    905,    906,    902,    901
    596,    261,    262,    783,    782,    906,    907,    903,    902
    597,    262,    263,    784,    783,    907,    908,    904,    903
    598,    276,    277,    261,    260,    909,    910,    906,    905
    599,    277,    278,    262,    261,    910,    911,    907,    906
    600,    278,    279,    263,    262,    911,    912,    908,    907
    601,    292,    293,    277,    276,    913,    914,    910,    909
    602,    293,    294,    278,    277,    914,    915,    911,    910
    603,    294,    295,    279,    278,    915,    916,    912,    911
    604,    308,    309,    293,    292,    917,    918,    914,    913
    605,    309,    310,    294,    293,    918,    919,    915,    914
    606,    310,    311,    295,    294,    919,    920,    916,    915
    607,    324,    325,    309,    308,    921,    922,    918,    917
    608,    325,    326,    310,    309,    922,    923,    919,    918
    609,    326,    327,    311,    310,    923,    924,    920,    919
    610,    845,    846,    842,    841,    929,    930,    926,    925
    611,    846,    847,    843,    842,    930,    931,    927,    926
    612,    847,    848,    844,    843,    931,    932,    928,    927
    613,    849,    850,    846,    845,    933,    934,    930,    929
    614,    850,    851,    847,    846,    934,    935,    931,    930
** ... 55 like lines cut
** Femap Group 1 : zmax
*NSET, NSET=Gzmax
321,322,323,324,325,326,327,328,329,330
331,332,333,334,335,336,585,586,587,588
669,670,671,672,753,754,755,756
** Femap Group 2 : zmin
*NSET, NSET=Gzmin
1,2,3,4,5,6,7,8,9,10
11,12,13,14,15,16
** Femap Group 3 : xmin
*NSET, NSET=Gxmin
1,2,3,4,17,18,19,20,33,34
35,36,49,50,51,52,65,66,67,68
81,82,83,84,97,98,99,100,113,114
115,116,129,130,131,132,145,146,147,148
161,162,163,164,177,178,179,180,193,194
195,196,209,210,211,212,225,226,227,228
241,242,243,244,257,258,259,260,273,274
275,276,289,290,291,292,305,306,307,308
321,322,323,324,505,509,513,517,521,525
529,533,537,541,545,549,553,557,561,565
569,573,577,581,585,589,593,597,601,605
609,613,617,621,625,629,633,637,641,645
649,653,657,661,665,669,673,677,681,685
689,693,697,701,705,709,713,717,721,725
729,733,737,741,745,749,753
** Femap Group 4 : ymin
*NSET, NSET=Gymin
1,10,11,12,17,26,27,28,33,42
43,44,49,58,59,60,65,74,75,76
81,90,91,92,97,106,107,108,113,122
123,124,129,138,139,140,145,154,155,156
161,170,171,172,177,186,187,188,193,202
203,204,209,218,219,220,225,234,235,236
241,250,251,252,257,266,267,268,273,282
283,284,289,298,299,300,305,314,315,316
321,330,331,332
*ELSET, ELSET=OUT_CONT, GENERATE
10,189,1
550,669,1
** Femap Property 1 : wire
*ORIENTATION, NAME=S0, DEFINITION=COORDINATES, SYSTEM=RECTANGULAR
        1.,        0.,        0.,        0.,        1.,        0.
*SOLID SECTION, ELSET=Pwire, MATERIAL=Ma, ORIENTATION=S0
** Femap Property 2 : cover
*SOLID SECTION, ELSET=Pcover, MATERIAL=Ma, ORIENTATION=S0
** Femap Property 3 : wire_coh
*SOLID SECTION, ELSET=Pwire_coh, MATERIAL=Ma, ORIENTATION=S0
** Femap Property 4 : cover_coh
*SOLID SECTION, ELSET=Pcover_coh, MATERIAL=Ma, ORIENTATION=S0
** Femap Material 1 : a
*MATERIAL, NAME=Ma
*ELASTIC, TYPE=ISOTROPIC
        0.,        0.,        0.
** Load Step 1 -------------------------------------------------------
*STEP, INC=100
ñ≥ëË
*STATIC

*NODE PRINT, FREQUENCY=1
    U,
*FILE FORMAT, ASCII
*NODE FILE, FREQUENCY=1
    U,
*NODE FILE, FREQUENCY=1
   CF,
*NODE FILE, FREQUENCY=1
   RF,
*EL PRINT, ELSET=OUT_CONT,FREQUENCY=1, POSITION=CENTROIDAL
    S,
 SINV,
*EL PRINT, ELSET=OUT_CONT,FREQUENCY=1,	POSITION=NODES
    S,
 SINV,
*EL FILE, ELSET=OUT_CONT,FREQUENCY=1, POSITION=CENTROIDAL
    S,
 SINV,
*EL FILE, ELSET=OUT_CONT,FREQUENCY=1,	POSITION=NODES
    S,
 SINV,
*EL PRINT, ELSET=OUT_CONT,FREQUENCY=1, POSITION=CENTROIDAL
*EL PRINT, ELSET=OUT_CONT,FREQUENCY=1,	POSITION=NODES
*EL FILE, ELSET=OUT_CONT,FREQUENCY=1, POSITION=CENTROIDAL
*EL FILE, ELSET=OUT_CONT,FREQUENCY=1,	POSITION=NODES
*END STEP
