** ***************************************************************************
**   Written by : Femap
**   Version    : 2020.2.2
**   From Model : F:\active\7v\b01\assets\mesh_è¨MG2_t35um.modfem
**   Date       : Tue Jan 27 14:13:50 2026
** ***************************************************************************
** 
*HEADING
ABAQUS ê√âêÕ âêÕÉZÉbÉg
*NODE, NSET=GLOBAL
   90404,       1.379,       0.976,          0.
   91475,   1.3852266,       1.011,  -0.1785714
   91476,       1.714,   0.6822266,  -0.1785714
   91566,       1.379,       0.976,  -0.1785714
   91567,       1.679,       0.676,  -0.1785714
   91608,   1.3852266,       1.011,  -0.2142857
   91609,       1.714,   0.6822266,  -0.2142857
   91699,       1.379,       0.976,  -0.2142857
   91700,       1.679,       0.676,  -0.2142857
   91741,   1.3852266,       1.011,       -0.25
   91742,       1.714,   0.6822266,       -0.25
   91832,       1.379,       0.976,       -0.25
   91833,       1.679,       0.676,       -0.25
   91874,   1.3852266,       1.011,  -0.2857143
   91875,       1.714,   0.6822266,  -0.2857143
   91965,       1.379,       0.976,  -0.2857143
   91966,       1.679,       0.676,  -0.2857143
   92007,   1.3852266,       1.011,  -0.3214286
   92008,       1.714,   0.6822266,  -0.3214286
   92098,       1.379,       0.976,  -0.3214286
** ... 126072 like lines cut
*ELEMENT, TYPE=C3D8, ELSET=Pwire
 303754, 268408, 268409, 268455, 268454, 267812, 267813, 267859, 267858
 303755, 268409, 268410, 268456, 268455, 267813, 267814, 267860, 267859
 303756, 268410, 268411, 268457, 268456, 267814, 267815, 267861, 267860
 303757, 268411, 268412, 268458, 268457, 267815, 267816, 267862, 267861
 303758, 268412, 268413, 268459, 268458, 267816, 267817, 267863, 267862
 303759, 268413, 268414, 268460, 268459, 267817, 267818, 267864, 267863
 303760, 268414, 268415, 268461, 268460, 267818, 267819, 267865, 267864
 303761, 268415, 268416, 268462, 268461, 267819, 267820, 267866, 267865
 303762, 268416, 268417, 268463, 268462, 267820, 267821, 267867, 267866
 303763, 268417, 268418, 268464, 268463, 267821, 267822, 267868, 267867
 303764, 268418, 268419, 268465, 268464, 267822, 267823, 267869, 267868
 303765, 268419, 268420, 268466, 268465, 267823, 267824, 267870, 267869
 303766, 268420, 268421, 268467, 268466, 267824, 267825, 267871, 267870
 303767, 268421, 268422, 268468, 268467, 267825, 267826, 267872, 267871
 303768, 268422, 268423, 268469, 268468, 267826, 267827, 267873, 267872
 303769, 268423, 268424, 268470, 268469, 267827, 267828, 267874, 267873
 303770, 268424, 268425, 268471, 268470, 267828, 267829, 267875, 267874
 303771, 268425, 268426, 268472, 268471, 267829, 267830, 267876, 267875
 303772, 268426, 268427, 268473, 268472, 267830, 267831, 267877, 267876
 303773, 268427, 268428, 268429, 268473, 267831, 267832, 267833, 267877
** ... 38550 like lines cut
*ELEMENT, TYPE=C3D8, ELSET=Pcover
 437426, 392099, 392367, 390304, 390305,  91608, 131183, 130686,  91475
 437427, 392367, 392368, 390303, 390304, 131183, 131184, 130687, 130686
 437428, 392368, 392369, 390302, 390303, 131184, 131185, 130688, 130687
 437429, 392369, 392370, 390301, 390302, 131185, 131186, 130689, 130688
 437430, 392370, 392371, 390300, 390301, 131186, 131187, 130690, 130689
 437431, 392371, 392372, 390299, 390300, 131187, 131188, 130691, 130690
 437432, 392372, 392373, 390298, 390299, 131188, 131189, 130692, 130691
 437433, 392373, 392374, 390297, 390298, 131189, 131190, 130693, 130692
 437434, 392374, 392375, 390296, 390297, 131190, 131191, 130694, 130693
 437435, 392375, 392376, 390295, 390296, 131191, 131192, 130695, 130694
 437436, 392376, 392377, 390294, 390295, 131192, 131193, 130696, 130695
 437437, 392377, 392378, 390293, 390294, 131193, 131194, 130697, 130696
 437438, 392378, 392379, 390292, 390293, 131194, 131195, 130698, 130697
 437439, 392379, 392380, 390291, 390292, 131195, 131196, 130699, 130698
 437440, 392380, 392381, 390290, 390291, 131196, 131197, 130700, 130699
 437441, 392381, 392382, 390289, 390290, 131197, 131198, 130701, 130700
 437442, 392382, 392383, 390288, 390289, 131198, 131199, 130702, 130701
 437443, 392383, 392384, 390287, 390288, 131199, 131200, 130703, 130702
 437444, 392384, 392385, 390286, 390287, 131200, 131201, 130704, 130703
 437445, 392385, 392386, 390285, 390286, 131201, 131202, 130705, 130704
** ... 70450 like lines cut
** Femap Group 1 : zmax
*NSET, NSET=Gzmax, GENERATE
90404,90404,1
128483,128483,1
261229,261231,1
261241,261242,1
267812,268400,1
** Femap Group 2 : zmin
*NSET, NSET=Gzmin, GENERATE
109430,109431,1
109521,109522,1
197728,197773,1
198064,198086,1
198092,198114,1
309525,310120,1
370510,370543,1
390037,390078,1
390481,390522,1
390925,390966,1
391369,391410,1
391813,391854,1
** Femap Group 3 : xmin
*NSET, NSET=Gxmin
130633,130731,131130,131228,131627,131725,132124,132222,132621,132719
133118,133216,133615,133713,134112,134210,134609,134707,135106,135204
135603,135701,136100,136198,136597,136695,137094,137192,137591,137689
138088,138186,138585,138683,139082,139180,139579,139677,140076,140174
140573,140671,141070,141168,141567,141665,142064,142162,142561,142659
143058,143156,143555,143653,144052,144150,144549,144647,145046,145144
145543,145641,146040,146138,146537,146635,147034,147132,147531,147629
148028,148126,148525,148623,149022,149120,149519,149617,150016,150114
150513,150611,151010,151108,151507,151605,152004,152102,152501,152599
152998,153096,153495,153593,153992,154090,154489,154587,154986,155084
155483,155581,155980,156078,156477,156575,156974,157072,157471,157569
157968,158066,158465,158563,158962,159060,159459,159557,159956,160054
160453,160551,160950,161048,161447,161545,161944,162042,162441,162539
162938,163036,163435,163533,163932,164030,164429,164527,164926,165024
165423,165521,165920,166018,166417,166515,166914,167012,167411,167509
167908,168006,168405,168503,168902,169000,169399,169497,169896,169994
170393,170491,170890,170988,171387,171485,171884,171982,172381,172479
172878,172976,173375,173473,173872,173970,174369,174467,174866,174964
175363,175461,175860,175958,176357,176455,176854,176952,177351,177449
177848,177946,178345,178443,178842,178940,179339,179437,179836,179934
** ... 232 like lines cut
** Femap Group 4 : ymin
*NSET, NSET=Gymin
130991,130997,131488,131494,131985,131991,132482,132488,132979,132985
133476,133482,133973,133979,134470,134476,134967,134973,135464,135470
135961,135967,136458,136464,136955,136961,137452,137458,137949,137955
138446,138452,138943,138949,139440,139446,139937,139943,140434,140440
140931,140937,141428,141434,141925,141931,142422,142428,142919,142925
143416,143422,143913,143919,144410,144416,144907,144913,145404,145410
145901,145907,146398,146404,146895,146901,147392,147398,147889,147895
148386,148392,148883,148889,149380,149386,149877,149883,150374,150380
150871,150877,151368,151374,151865,151871,152362,152368,152859,152865
153356,153362,153853,153859,154350,154356,154847,154853,155344,155350
155841,155847,156338,156344,156835,156841,157332,157338,157829,157835
158326,158332,158823,158829,159320,159326,159817,159823,160314,160320
160811,160817,161308,161314,161805,161811,162302,162308,162799,162805
163296,163302,163793,163799,164290,164296,164787,164793,165284,165290
165781,165787,166278,166284,166775,166781,167272,167278,167769,167775
168266,168272,168763,168769,169260,169266,169757,169763,170254,170260
170751,170757,171248,171254,171745,171751,172242,172248,172739,172745
173236,173242,173733,173739,174230,174236,174727,174733,175224,175230
175721,175727,176218,176224,176715,176721,177212,177218,177709,177715
178206,178212,178703,178709,179200,179206,179697,179703,180194,180200
** ... 274 like lines cut
*ELSET, ELSET=OUT_CONT, GENERATE
303754,342323,1
437426,507895,1
** Femap Property 1 : wire
*ORIENTATION, NAME=S0, DEFINITION=COORDINATES, SYSTEM=RECTANGULAR
        1.,        0.,        0.,        0.,        1.,        0.
*SOLID SECTION, ELSET=Pwire, MATERIAL=Mìôï˚ê´_É}ÉeÉäÉAÉã, ORIENTATION=S0
** Femap Property 3 : cover
*SOLID SECTION, ELSET=Pcover, MATERIAL=Mìôï˚ê´_É}ÉeÉäÉAÉã, ORIENTATION=S0
** Femap Material 1 : ìôï˚ê´ É}ÉeÉäÉAÉã
*MATERIAL, NAME=Mìôï˚ê´_É}ÉeÉäÉAÉã
*ELASTIC, TYPE=ISOTROPIC
        0.,        0.,        0.
** Load Step 1 -------------------------------------------------------
*STEP, INC=100
ñ≥ëË
*STATIC

*NODE PRINT, FREQUENCY=1
    U,
*FILE FORMAT, ASCII
*NODE FILE, FREQUENCY=1
    U,
*NODE FILE, FREQUENCY=1
   CF,
*NODE FILE, FREQUENCY=1
   RF,
*EL PRINT, ELSET=OUT_CONT,FREQUENCY=1, POSITION=CENTROIDAL
    S,
 SINV,
*EL PRINT, ELSET=OUT_CONT,FREQUENCY=1,	POSITION=NODES
    S,
 SINV,
*EL FILE, ELSET=OUT_CONT,FREQUENCY=1, POSITION=CENTROIDAL
    S,
 SINV,
*EL FILE, ELSET=OUT_CONT,FREQUENCY=1,	POSITION=NODES
    S,
 SINV,
*EL PRINT, ELSET=OUT_CONT,FREQUENCY=1, POSITION=CENTROIDAL
*EL PRINT, ELSET=OUT_CONT,FREQUENCY=1,	POSITION=NODES
*EL FILE, ELSET=OUT_CONT,FREQUENCY=1, POSITION=CENTROIDAL
*EL FILE, ELSET=OUT_CONT,FREQUENCY=1,	POSITION=NODES
*END STEP
