** ***************************************************************************
**   Written by : Femap
**   Version    : 2020.2.2
**   From Model : F:\active\7v\b01\assets\mesh_test.modfem
**   Date       : Fri Jan 30 11:06:31 2026
** ***************************************************************************
** 
*HEADING
ABAQUS ê√âêÕ âêÕÉZÉbÉg
*NODE, NSET=GLOBAL
       1,          0.,          0.,          0.
       2,          0.,   0.3333333,          0.
       3,          0.,   0.6666667,          0.
       4,          0.,          1.,          0.
       5,   0.3333333,          1.,          0.
       6,   0.6666667,          1.,          0.
       7,          1.,          1.,          0.
       8,          1.,   0.6666667,          0.
       9,          1.,   0.3333333,          0.
      10,          1.,          0.,          0.
      11,   0.6666667,          0.,          0.
      12,   0.3333333,          0.,          0.
      13,   0.3333333,   0.3333333,          0.
      14,   0.3333333,   0.6666667,          0.
      15,   0.6666667,   0.3333333,          0.
      16,   0.6666667,   0.6666667,          0.
      17,          0.,          0.,       0.333
      18,          0.,   0.3333333,       0.333
      19,          0.,   0.6666667,       0.333
      20,          0.,          1.,       0.333
** ... 520 like lines cut
*ELEMENT, TYPE=C3D8, ELSET=Pwire
     10,     17,     18,     29,     28,      1,      2,     13,     12
     11,     18,     19,     30,     29,      2,      3,     14,     13
     12,     19,     20,     21,     30,      3,      4,      5,     14
     13,     28,     29,     31,     27,     12,     13,     15,     11
     14,     29,     30,     32,     31,     13,     14,     16,     15
     15,     30,     21,     22,     32,     14,      5,      6,     16
     16,     27,     31,     25,     26,     11,     15,      9,     10
     17,     31,     32,     24,     25,     15,     16,      8,      9
     18,     32,     22,     23,     24,     16,      6,      7,      8
     19,     33,     34,     45,     44,     17,     18,     29,     28
     20,     34,     35,     46,     45,     18,     19,     30,     29
     21,     35,     36,     37,     46,     19,     20,     21,     30
     22,     44,     45,     47,     43,     28,     29,     31,     27
     23,     45,     46,     48,     47,     29,     30,     32,     31
     24,     46,     37,     38,     48,     30,     21,     22,     32
     25,     43,     47,     41,     42,     27,     31,     25,     26
     26,     47,     48,     40,     41,     31,     32,     24,     25
     27,     48,     38,     39,     40,     32,     22,     23,     24
     28,     49,     50,     61,     60,     33,     34,     45,     44
     29,     50,     51,     62,     61,     34,     35,     46,     45
** ... 160 like lines cut
*ELEMENT, TYPE=C3D8, ELSET=Pcover
    430,    509,    510,    506,    505,    593,    594,    590,    589
    431,    510,    511,    507,    506,    594,    595,    591,    590
    432,    511,    512,    508,    507,    595,    596,    592,    591
    433,    513,    514,    510,    509,    597,    598,    594,    593
    434,    514,    515,    511,    510,    598,    599,    595,    594
    435,    515,    516,    512,    511,    599,    600,    596,    595
    436,    517,    518,    514,    513,    601,    602,    598,    597
    437,    518,    519,    515,    514,    602,    603,    599,    598
    438,    519,    520,    516,    515,    603,    604,    600,    599
    439,    521,    522,    518,    517,    605,    606,    602,    601
    440,    522,    523,    519,    518,    606,    607,    603,    602
    441,    523,    524,    520,    519,    607,    608,    604,    603
    442,    525,    526,    522,    521,    609,    610,    606,    605
    443,    526,    527,    523,    522,    610,    611,    607,    606
    444,    527,    528,    524,    523,    611,    612,    608,    607
    445,    529,    530,    526,    525,    613,    614,    610,    609
    446,    530,    531,    527,    526,    614,    615,    611,    610
    447,    531,    532,    528,    527,    615,    616,    612,    611
    448,    533,    534,    530,    529,    617,    618,    614,    613
    449,    534,    535,    531,    530,    618,    619,    615,    614
** ... 100 like lines cut
** Femap Group 1 : zmax
*NSET, NSET=Gzmax
321,322,323,324,325,326,327,328,329,330
331,332,333,334,335,336,585,586,587,588
669,670,671,672,753,754,755,756
** Femap Group 2 : zmin
*NSET, NSET=Gzmin
1,2,3,4,5,6,7,8,9,10
11,12,13,14,15,16
** Femap Group 3 : xmin
*NSET, NSET=Gxmin
1,2,3,4,17,18,19,20,33,34
35,36,49,50,51,52,65,66,67,68
81,82,83,84,97,98,99,100,113,114
115,116,129,130,131,132,145,146,147,148
161,162,163,164,177,178,179,180,193,194
195,196,209,210,211,212,225,226,227,228
241,242,243,244,257,258,259,260,273,274
275,276,289,290,291,292,305,306,307,308
321,322,323,324,505,509,513,517,521,525
529,533,537,541,545,549,553,557,561,565
569,573,577,581,585,589,593,597,601,605
609,613,617,621,625,629,633,637,641,645
649,653,657,661,665,669,673,677,681,685
689,693,697,701,705,709,713,717,721,725
729,733,737,741,745,749,753
** Femap Group 4 : ymin
*NSET, NSET=Gymin
1,10,11,12,17,26,27,28,33,42
43,44,49,58,59,60,65,74,75,76
81,90,91,92,97,106,107,108,113,122
123,124,129,138,139,140,145,154,155,156
161,170,171,172,177,186,187,188,193,202
203,204,209,218,219,220,225,234,235,236
241,250,251,252,257,266,267,268,273,282
283,284,289,298,299,300,305,314,315,316
321,330,331,332
** Femap Group 5 : coh_cover
*ELSET, ELSET=Gcoh_cover, GENERATE
430,450,1
** Femap Group 6 : coh_wire
*ELSET, ELSET=Gcoh_wire
12,15,18,21,24,27,30,33,36,39
42,45,48,51,54,57,60,63,66,69
72
*ELSET, ELSET=OUT_CONT, GENERATE
10,189,1
430,549,1
** Femap Property 1 : wire
*ORIENTATION, NAME=S0, DEFINITION=COORDINATES, SYSTEM=RECTANGULAR
        1.,        0.,        0.,        0.,        1.,        0.
*SOLID SECTION, ELSET=Pwire, MATERIAL=Ma, ORIENTATION=S0
** Femap Property 2 : cover
*SOLID SECTION, ELSET=Pcover, MATERIAL=Ma, ORIENTATION=S0
** Femap Material 1 : a
*MATERIAL, NAME=Ma
*ELASTIC, TYPE=ISOTROPIC
        0.,        0.,        0.
** Load Step 1 -------------------------------------------------------
*STEP, INC=100
ñ≥ëË
*STATIC

*NODE PRINT, FREQUENCY=1
    U,
*FILE FORMAT, ASCII
*NODE FILE, FREQUENCY=1
    U,
*NODE FILE, FREQUENCY=1
   CF,
*NODE FILE, FREQUENCY=1
   RF,
*EL PRINT, ELSET=OUT_CONT,FREQUENCY=1, POSITION=CENTROIDAL
    S,
 SINV,
*EL PRINT, ELSET=OUT_CONT,FREQUENCY=1,	POSITION=NODES
    S,
 SINV,
*EL FILE, ELSET=OUT_CONT,FREQUENCY=1, POSITION=CENTROIDAL
    S,
 SINV,
*EL FILE, ELSET=OUT_CONT,FREQUENCY=1,	POSITION=NODES
    S,
 SINV,
*EL PRINT, ELSET=OUT_CONT,FREQUENCY=1, POSITION=CENTROIDAL
*EL PRINT, ELSET=OUT_CONT,FREQUENCY=1,	POSITION=NODES
*EL FILE, ELSET=OUT_CONT,FREQUENCY=1, POSITION=CENTROIDAL
*EL FILE, ELSET=OUT_CONT,FREQUENCY=1,	POSITION=NODES
*END STEP
