** ***************************************************************************
**   Written by : Femap
**   Version    : 2020.2.2
**   From Model : F:\active\7v\b01\assets\mesh_è¨MG2.modfem
**   Date       : Mon Jan 26 19:19:18 2026
** ***************************************************************************
** 
*HEADING
ABAQUS ê√âêÕ âêÕÉZÉbÉg
*NODE, NSET=GLOBAL
   90404,       1.379,       0.976,          0.
   91440,   1.3800378,   0.9918333,  -0.1785714
   91441,   1.6948333,   0.6770378,  -0.1785714
   91447,   1.3810755,   1.0076667,  -0.1785714
   91448,   1.7106667,   0.6780755,  -0.1785714
   91454,   1.3821133,      1.0235,  -0.1785714
   91455,      1.7265,   0.6791133,  -0.1785714
   91461,   1.3831511,   1.0393333,  -0.1785714
   91462,   1.7423333,   0.6801511,  -0.1785714
   91468,   1.3841889,   1.0551667,  -0.1785714
   91469,   1.7581667,   0.6811889,  -0.1785714
   91475,   1.3852266,       1.071,  -0.1785714
   91476,       1.774,   0.6822266,  -0.1785714
   91566,       1.379,       0.976,  -0.1785714
   91567,       1.679,       0.676,  -0.1785714
   91573,   1.3800378,   0.9918333,  -0.2142857
   91574,   1.6948333,   0.6770378,  -0.2142857
   91580,   1.3810755,   1.0076667,  -0.2142857
   91581,   1.7106667,   0.6780755,  -0.2142857
   91587,   1.3821133,      1.0235,  -0.2142857
** ... 126072 like lines cut
*ELEMENT, TYPE=C3D8, ELSET=Pcover
 189353, 131130, 131131, 131234, 131233, 130633, 130634, 130737, 130736
 189354, 131131, 131132, 131235, 131234, 130634, 130635, 130738, 130737
 189355, 131132, 131133, 131236, 131235, 130635, 130636, 130739, 130738
 189356, 131133, 131134, 131237, 131236, 130636, 130637, 130740, 130739
 189357, 131134, 131135, 131238, 131237, 130637, 130638, 130741, 130740
 189358, 131135, 131136, 131239, 131238, 130638, 130639, 130742, 130741
 189359, 131136, 131137, 131240, 131239, 130639, 130640, 130743, 130742
 189360, 131137, 131138, 131241, 131240, 130640, 130641, 130744, 130743
 189361, 131138, 131139, 131242, 131241, 130641, 130642, 130745, 130744
 189362, 131139, 131140, 131243, 131242, 130642, 130643, 130746, 130745
 189363, 131140, 131141, 131244, 131243, 130643, 130644, 130747, 130746
 189364, 131141, 131142, 131245, 131244, 130644, 130645, 130748, 130747
 189365, 131142, 131143, 131246, 131245, 130645, 130646, 130749, 130748
 189366, 131143, 131144, 131247, 131246, 130646, 130647, 130750, 130749
 189367, 131144, 131145, 131248, 131247, 130647, 130648, 130751, 130750
 189368, 131145, 131146, 131249, 131248, 130648, 130649, 130752, 130751
 189369, 131146, 131147, 131250, 131249, 130649, 130650, 130753, 130752
 189370, 131147, 131148, 131251, 131250, 130650, 130651, 130754, 130753
 189371, 131148, 131149, 131252, 131251, 130651, 130652, 130755, 130754
 189372, 131149, 131150, 131253, 131252, 130652, 130653, 130756, 130755
** ... 55870 like lines cut
*ELEMENT, TYPE=C3D8, ELSET=Pwire
 303754, 268408, 268409, 268455, 268454, 267812, 267813, 267859, 267858
 303755, 268409, 268410, 268456, 268455, 267813, 267814, 267860, 267859
 303756, 268410, 268411, 268457, 268456, 267814, 267815, 267861, 267860
 303757, 268411, 268412, 268458, 268457, 267815, 267816, 267862, 267861
 303758, 268412, 268413, 268459, 268458, 267816, 267817, 267863, 267862
 303759, 268413, 268414, 268460, 268459, 267817, 267818, 267864, 267863
 303760, 268414, 268415, 268461, 268460, 267818, 267819, 267865, 267864
 303761, 268415, 268416, 268462, 268461, 267819, 267820, 267866, 267865
 303762, 268416, 268417, 268463, 268462, 267820, 267821, 267867, 267866
 303763, 268417, 268418, 268464, 268463, 267821, 267822, 267868, 267867
 303764, 268418, 268419, 268465, 268464, 267822, 267823, 267869, 267868
 303765, 268419, 268420, 268466, 268465, 267823, 267824, 267870, 267869
 303766, 268420, 268421, 268467, 268466, 267824, 267825, 267871, 267870
 303767, 268421, 268422, 268468, 268467, 267825, 267826, 267872, 267871
 303768, 268422, 268423, 268469, 268468, 267826, 267827, 267873, 267872
 303769, 268423, 268424, 268470, 268469, 267827, 267828, 267874, 267873
 303770, 268424, 268425, 268471, 268470, 267828, 267829, 267875, 267874
 303771, 268425, 268426, 268472, 268471, 267829, 267830, 267876, 267875
 303772, 268426, 268427, 268473, 268472, 267830, 267831, 267877, 267876
 303773, 268427, 268428, 268429, 268473, 267831, 267832, 267833, 267877
** ... 38550 like lines cut
*ELEMENT, TYPE=C3D8, ELSET=Pcover
 381572,  91476,  91469, 352589, 352588,  91609,  91602, 352722, 352721
 381573,  91469,  91462, 352590, 352589,  91602,  91595, 352723, 352722
 381574,  91462,  91455, 352591, 352590,  91595,  91588, 352724, 352723
 381575,  91455,  91448, 352592, 352591,  91588,  91581, 352725, 352724
 381576,  91448,  91441, 352593, 352592,  91581,  91574, 352726, 352725
 381577,  91441,  91567, 352555, 352593,  91574,  91700, 352688, 352726
 381578, 352588, 352589, 352594, 352587, 352721, 352722, 352727, 352720
 381579, 352589, 352590, 352595, 352594, 352722, 352723, 352728, 352727
 381580, 352590, 352591, 352596, 352595, 352723, 352724, 352729, 352728
 381581, 352591, 352592, 352597, 352596, 352724, 352725, 352730, 352729
 381582, 352592, 352593, 352598, 352597, 352725, 352726, 352731, 352730
 381583, 352593, 352555, 352556, 352598, 352726, 352688, 352689, 352731
 381584, 352587, 352594, 352599, 352586, 352720, 352727, 352732, 352719
 381585, 352594, 352595, 352600, 352599, 352727, 352728, 352733, 352732
 381586, 352595, 352596, 352601, 352600, 352728, 352729, 352734, 352733
 381587, 352596, 352597, 352602, 352601, 352729, 352730, 352735, 352734
 381588, 352597, 352598, 352603, 352602, 352730, 352731, 352736, 352735
 381589, 352598, 352556, 352557, 352603, 352731, 352689, 352690, 352736
 381590, 352586, 352599, 352604, 352585, 352719, 352732, 352737, 352718
 381591, 352599, 352600, 352605, 352604, 352732, 352733, 352738, 352737
** ... 14560 like lines cut
** Femap Group 1 : zmax
*NSET, NSET=Gzmax, GENERATE
90404,90404,1
128483,128483,1
261229,261231,1
261241,261242,1
267812,268400,1
** Femap Group 2 : zmin
*NSET, NSET=Gzmin, GENERATE
109395,109396,1
109402,109403,1
109409,109410,1
109416,109417,1
109423,109424,1
109430,109431,1
109521,109522,1
197728,197773,1
197831,197876,1
198064,198224,1
309525,310120,1
370510,370628,1
** Femap Group 3 : xmin
*NSET, NSET=Gxmin
130633,130731,130732,130733,130734,130735,130736,131130,131228,131229
131230,131231,131232,131233,131627,131725,131726,131727,131728,131729
131730,132124,132222,132223,132224,132225,132226,132227,132621,132719
132720,132721,132722,132723,132724,133118,133216,133217,133218,133219
133220,133221,133615,133713,133714,133715,133716,133717,133718,134112
134210,134211,134212,134213,134214,134215,134609,134707,134708,134709
134710,134711,134712,135106,135204,135205,135206,135207,135208,135209
135603,135701,135702,135703,135704,135705,135706,136100,136198,136199
136200,136201,136202,136203,136597,136695,136696,136697,136698,136699
136700,137094,137192,137193,137194,137195,137196,137197,137591,137689
137690,137691,137692,137693,137694,138088,138186,138187,138188,138189
138190,138191,138585,138683,138684,138685,138686,138687,138688,139082
139180,139181,139182,139183,139184,139185,139579,139677,139678,139679
139680,139681,139682,140076,140174,140175,140176,140177,140178,140179
140573,140671,140672,140673,140674,140675,140676,141070,141168,141169
141170,141171,141172,141173,141567,141665,141666,141667,141668,141669
141670,142064,142162,142163,142164,142165,142166,142167,142561,142659
142660,142661,142662,142663,142664,143058,143156,143157,143158,143159
143160,143161,143555,143653,143654,143655,143656,143657,143658,144052
144150,144151,144152,144153,144154,144155,144549,144647,144648,144649
** ... 232 like lines cut
** Femap Group 4 : ymin
*NSET, NSET=Gymin
130991,130992,130993,130994,130995,130996,130997,131488,131489,131490
131491,131492,131493,131494,131985,131986,131987,131988,131989,131990
131991,132482,132483,132484,132485,132486,132487,132488,132979,132980
132981,132982,132983,132984,132985,133476,133477,133478,133479,133480
133481,133482,133973,133974,133975,133976,133977,133978,133979,134470
134471,134472,134473,134474,134475,134476,134967,134968,134969,134970
134971,134972,134973,135464,135465,135466,135467,135468,135469,135470
135961,135962,135963,135964,135965,135966,135967,136458,136459,136460
136461,136462,136463,136464,136955,136956,136957,136958,136959,136960
136961,137452,137453,137454,137455,137456,137457,137458,137949,137950
137951,137952,137953,137954,137955,138446,138447,138448,138449,138450
138451,138452,138943,138944,138945,138946,138947,138948,138949,139440
139441,139442,139443,139444,139445,139446,139937,139938,139939,139940
139941,139942,139943,140434,140435,140436,140437,140438,140439,140440
140931,140932,140933,140934,140935,140936,140937,141428,141429,141430
141431,141432,141433,141434,141925,141926,141927,141928,141929,141930
141931,142422,142423,142424,142425,142426,142427,142428,142919,142920
142921,142922,142923,142924,142925,143416,143417,143418,143419,143420
143421,143422,143913,143914,143915,143916,143917,143918,143919,144410
144411,144412,144413,144414,144415,144416,144907,144908,144909,144910
** ... 274 like lines cut
*ELSET, ELSET=OUT_CONT, GENERATE
189353,245242,1
303754,342323,1
381572,396151,1
** Femap Property 1 : wire
*ORIENTATION, NAME=S0, DEFINITION=COORDINATES, SYSTEM=RECTANGULAR
        1.,        0.,        0.,        0.,        1.,        0.
*SOLID SECTION, ELSET=Pwire, MATERIAL=Mìôï˚ê´_É}ÉeÉäÉAÉã, ORIENTATION=S0
** Femap Property 3 : cover
*SOLID SECTION, ELSET=Pcover, MATERIAL=Mìôï˚ê´_É}ÉeÉäÉAÉã, ORIENTATION=S0
** Femap Material 1 : ìôï˚ê´ É}ÉeÉäÉAÉã
*MATERIAL, NAME=Mìôï˚ê´_É}ÉeÉäÉAÉã
*ELASTIC, TYPE=ISOTROPIC
        0.,        0.,        0.
** Load Step 1 -------------------------------------------------------
*STEP, INC=100
ñ≥ëË
*STATIC

*NODE PRINT, FREQUENCY=1
    U,
*FILE FORMAT, ASCII
*NODE FILE, FREQUENCY=1
    U,
*NODE FILE, FREQUENCY=1
   CF,
*NODE FILE, FREQUENCY=1
   RF,
*EL PRINT, ELSET=OUT_CONT,FREQUENCY=1, POSITION=CENTROIDAL
    S,
 SINV,
*EL PRINT, ELSET=OUT_CONT,FREQUENCY=1,	POSITION=NODES
    S,
 SINV,
*EL FILE, ELSET=OUT_CONT,FREQUENCY=1, POSITION=CENTROIDAL
    S,
 SINV,
*EL FILE, ELSET=OUT_CONT,FREQUENCY=1,	POSITION=NODES
    S,
 SINV,
*EL PRINT, ELSET=OUT_CONT,FREQUENCY=1, POSITION=CENTROIDAL
*EL PRINT, ELSET=OUT_CONT,FREQUENCY=1,	POSITION=NODES
*EL FILE, ELSET=OUT_CONT,FREQUENCY=1, POSITION=CENTROIDAL
*EL FILE, ELSET=OUT_CONT,FREQUENCY=1,	POSITION=NODES
*END STEP
