** ***************************************************************************
**   Written by : Femap
**   Version    : 2020.2.2
**   From Model : F:\active\7v\a01\assets\tmp.modfem
**   Date       : Mon Jan 26 18:08:03 2026
** ***************************************************************************
** 
*HEADING
ABAQUS 静解析 解析セット
*NODE, NSET=GLOBAL
       1,     1.32384,     0.82896,          0.
       2,   1.3662664,   0.8113864,          0.
       3,   1.4086928,   0.7938128,          0.
       4,   1.4511192,   0.7762392,          0.
       5,   1.4861224,   0.8042124,          0.
       6,   1.5211256,   0.8321856,          0.
       7,   1.5561288,   0.8601588,          0.
       8,    1.591132,    0.888132,          0.
       9,       1.529,   0.9358076,          0.
      10,   1.4566457,   0.9657777,          0.
      11,       1.379,       0.976,          0.
      12,     1.36521,     0.93924,          0.
      13,     1.35142,     0.90248,          0.
      14,     1.33763,     0.86572,          0.
      15,   1.3888612,   0.8499842,          0.
      16,   1.4387696,   0.8293115,          0.
      17,   1.4114561,   0.8885821,          0.
      18,   1.4688464,   0.8648102,          0.
      19,   1.4340509,   0.9271799,          0.
      20,   1.4989232,   0.9003089,          0.
** ... 576 like lines cut
*ELEMENT, TYPE=S4, ELSET=Pプレート_プロパティ
      1,      1,      2,     15,     14
      2,      2,      3,     16,     15
      3,      3,      4,      5,     16
      4,     14,     15,     17,     13
      5,     15,     16,     18,     17
      6,     16,      5,      6,     18
      7,     13,     17,     19,     12
      8,     17,     18,     20,     19
      9,     18,      6,      7,     20
     10,     12,     19,     10,     11
     11,     19,     20,      9,     10
     12,     20,      7,      8,      9
     13,     21,     22,     29,     28
     14,     22,     23,     30,     29
     15,     23,     24,     25,     30
     16,     28,     29,     31,     27
     17,     29,     30,     32,     31
     18,     30,     25,     26,     32
     19,     27,     31,      2,      1
     20,     31,     32,      3,      2
** ... 531 like lines cut
** Femap Group 1 : zmax
*NSET, NSET=Gzmax, GENERATE
116889,117009,1
117340,117504,1
** Femap Group 2 : fix
*NSET, NSET=Gfix, GENERATE
22,34,1
131,200,1
303,336,1
2581,2592,1
3420,3431,1
3972,4014,1
4287,4297,1
4386,4462,1
** Femap Group 3 : xmin_wire
*NSET, NSET=Gxmin_wire
59326,59343,59344,59345,59358,59372,59373,59374,59375,59376
59377,59447,59464,59465,59466,59479,59493,59494,59495,59496
59497,59498,59568,59585,59586,59587,59600,59614,59615,59616
59617,59618,59619,59689,59706,59707,59708,59721,59735,59736
59737,59738,59739,59740,59810,59827,59828,59829,59842,59856
59857,59858,59859,59860,59861,59931,59948,59949,59950,59963
59977,59978,59979,59980,59981,59982,60052,60069,60070,60071
60084,60098,60099,60100,60101,60102,60103,60173,60190,60191
60192,60205,60219,60220,60221,60222,60223,60224,60294,60311
60312,60313,60326,60340,60341,60342,60343,60344,60345,60415
60432,60433,60434,60447,60461,60462,60463,60464,60465,60466
60536,60553,60554,60555,60568,60582,60583,60584,60585,60586
60587,60657,60674,60675,60676,60689,60703,60704,60705,60706
60707,60708,60778,60795,60796,60797,60810,60824,60825,60826
60827,60828,60829,60899,60916,60917,60918,60931,60945,60946
60947,60948,60949,60950,61020,61037,61038,61039,61052,61066
61067,61068,61069,61070,61071,61141,61158,61159,61160,61173
61187,61188,61189,61190,61191,61192,61262,61279,61280,61281
61294,61308,61309,61310,61311,61312,61313,61383,61400,61401
61402,61415,61429,61430,61431,61432,61433,61434,61504,61521
** ... 205 like lines cut
** Femap Group 4 : ymin_wire
*NSET, NSET=Gymin_wire
59158,59159,59358,59359,59360,59361,59362,59363,59364,59365
59424,59425,59479,59480,59481,59482,59483,59484,59485,59486
59535,59545,59546,59600,59601,59602,59603,59604,59605,59606
59607,59656,59666,59667,59721,59722,59723,59724,59725,59726
59727,59728,59777,59787,59788,59842,59843,59844,59845,59846
59847,59848,59849,59898,59908,59909,59963,59964,59965,59966
59967,59968,59969,59970,60019,60029,60030,60084,60085,60086
60087,60088,60089,60090,60091,60140,60150,60151,60205,60206
60207,60208,60209,60210,60211,60212,60261,60271,60272,60326
60327,60328,60329,60330,60331,60332,60333,60382,60392,60393
60447,60448,60449,60450,60451,60452,60453,60454,60503,60513
60514,60568,60569,60570,60571,60572,60573,60574,60575,60624
60634,60635,60689,60690,60691,60692,60693,60694,60695,60696
60745,60755,60756,60810,60811,60812,60813,60814,60815,60816
60817,60866,60876,60877,60931,60932,60933,60934,60935,60936
60937,60938,60987,60997,60998,61052,61053,61054,61055,61056
61057,61058,61059,61108,61118,61119,61173,61174,61175,61176
61177,61178,61179,61180,61229,61239,61240,61294,61295,61296
61297,61298,61299,61300,61301,61350,61360,61361,61415,61416
61417,61418,61419,61420,61421,61422,61471,61481,61482,61536
** ... 205 like lines cut
** Femap Group 5 : xmin_cover
*NSET, NSET=Gxmin_cover
59323,59324,59325,83809,83810,83811,83974,83975,83976,84139
84140,84141,84304,84305,84306,84469,84470,84471,84634,84635
84636,84799,84800,84801,84964,84965,84966,85129,85130,85131
85294,85295,85296,85459,85460,85461,85624,85625,85626,85789
85790,85791,85954,85955,85956,86119,86120,86121,86284,86285
86286,86449,86450,86451,86614,86615,86616,86779,86780,86781
86944,86945,86946,87109,87110,87111,87274,87275,87276,87439
87440,87441,87604,87605,87606,87769,87770,87771,87934,87935
87936,88099,88100,88101,88264,88265,88266,88429,88430,88431
88594,88595,88596,88759,88760,88761,88924,88925,88926,89089
89090,89091,89254,89255,89256,89419,89420,89421,89584,89585
89586,89749,89750,89751,89914,89915,89916,90079,90080,90081
90244,90245,90246,90409,90410,90411,90574,90575,90576,90739
90740,90741,90904,90905,90906,91069,91070,91071,91234,91235
91236,91399,91400,91401,91564,91565,91566,91729,91730,91731
91894,91895,91896,92059,92060,92061,92224,92225,92226,92389
92390,92391,92554,92555,92556,92719,92720,92721,92884,92885
92886,93049,93050,93051,93214,93215,93216,93379,93380,93381
93544,93545,93546,93709,93710,93711,93874,93875,93876,94039
94040,94041,94204,94205,94206,94369,94370,94371,94534,94535
** ... 42 like lines cut
** Femap Group 6 : ymin_cover
*NSET, NSET=Gymin_cover
59158,59159,59160,59161,59162,59163,83647,83648,83649,83812
83813,83814,83977,83978,83979,84142,84143,84144,84307,84308
84309,84472,84473,84474,84637,84638,84639,84802,84803,84804
84967,84968,84969,85132,85133,85134,85297,85298,85299,85462
85463,85464,85627,85628,85629,85792,85793,85794,85957,85958
85959,86122,86123,86124,86287,86288,86289,86452,86453,86454
86617,86618,86619,86782,86783,86784,86947,86948,86949,87112
87113,87114,87277,87278,87279,87442,87443,87444,87607,87608
87609,87772,87773,87774,87937,87938,87939,88102,88103,88104
88267,88268,88269,88432,88433,88434,88597,88598,88599,88762
88763,88764,88927,88928,88929,89092,89093,89094,89257,89258
89259,89422,89423,89424,89587,89588,89589,89752,89753,89754
89917,89918,89919,90082,90083,90084,90247,90248,90249,90412
90413,90414,90577,90578,90579,90742,90743,90744,90907,90908
90909,91072,91073,91074,91237,91238,91239,91402,91403,91404
91567,91568,91569,91732,91733,91734,91897,91898,91899,92062
92063,92064,92227,92228,92229,92392,92393,92394,92557,92558
92559,92722,92723,92724,92887,92888,92889,93052,93053,93054
93217,93218,93219,93382,93383,93384,93547,93548,93549,93712
93713,93714,93877,93878,93879,94042,94043,94044,94207,94208
** ... 42 like lines cut
*ELSET, ELSET=OUT_PLT, GENERATE
1,551,1
** Femap Property 2 : プレート プロパティ
*SHELL SECTION, ELSET=Pプレート_プロパティ, MATERIAL=M等方性_マテリアル
        0.,          
** Femap Material 1 : 等方性 マテリアル
*MATERIAL, NAME=M等方性_マテリアル
*ELASTIC, TYPE=ISOTROPIC
        0.,        0.,        0.
** Load Step 1 -------------------------------------------------------
*STEP, INC=100
無題
*STATIC

*NODE PRINT, FREQUENCY=1
    U,
*FILE FORMAT, ASCII
*NODE FILE, FREQUENCY=1
    U,
*NODE FILE, FREQUENCY=1
   CF,
*NODE FILE, FREQUENCY=1
   RF,
*EL PRINT, ELSET=OUT_PLT,FREQUENCY=1, POSITION=CENTROIDAL
    S,
 SINV,
*EL PRINT, ELSET=OUT_PLT,FREQUENCY=1,	POSITION=NODES
    S,
 SINV,
*EL FILE, ELSET=OUT_PLT,FREQUENCY=1, POSITION=CENTROIDAL
    S,
 SINV,
*EL FILE, ELSET=OUT_PLT,FREQUENCY=1,	POSITION=NODES
    S,
 SINV,
*EL PRINT, ELSET=OUT_PLT,FREQUENCY=1, POSITION=CENTROIDAL
   SF,
*EL PRINT, ELSET=OUT_PLT,FREQUENCY=1,	POSITION=NODES
   SF,
*EL FILE, ELSET=OUT_PLT,FREQUENCY=1, POSITION=CENTROIDAL
   SF,
*EL FILE, ELSET=OUT_PLT,FREQUENCY=1,	POSITION=NODES
   SF,
*END STEP
