*NODE, NSET=GLOBAL
 1,1.295911E+00,7.972562E-01,0.000000E+00
 2,1.363000E+00,7.945631E-01,0.000000E+00
 3,1.417568E+00,7.900054E-01,0.000000E+00
 4,1.466729E+00,7.792464E-01,0.000000E+00
 5,1.500204E+00,8.100079E-01,0.000000E+00
 6,1.524840E+00,8.438123E-01,0.000000E+00
 7,1.547747E+00,8.765948E-01,0.000000E+00
 8,1.571624E+00,9.062179E-01,0.000000E+00
 9,1.506361E+00,9.481516E-01,0.000000E+00
 10,1.436322E+00,9.713202E-01,0.000000E+00
 11,1.371257E+00,9.770888E-01,0.000000E+00
 12,1.365056E+00,9.326617E-01,0.000000E+00
 13,1.351186E+00,8.910856E-01,0.000000E+00
 14,1.331272E+00,8.489414E-01,0.000000E+00
 15,1.375647E+00,8.354366E-01,0.000000E+00
 16,1.442912E+00,8.375641E-01,0.000000E+00
 17,1.412190E+00,8.859870E-01,0.000000E+00
 18,1.466220E+00,8.737068E-01,0.000000E+00
 19,1.427106E+00,9.310709E-01,0.000000E+00
 20,1.489153E+00,9.123977E-01,0.000000E+00
** ... 576 like lines cut
*ELEMENT, ELSET=PÉVÉÅÅ[ÉG_ÉVÉÇÉPÉEÉB, TYPE=S4
 1,1,2,15,14
 2,2,3,16,15
 3,3,4,5,16
 4,14,15,17,13
 5,15,16,18,17
 6,16,5,6,18
 7,13,17,19,12
 8,17,18,20,19
 9,18,6,7,20
 10,12,19,10,11
 11,19,20,9,10
 12,20,7,8,9
 13,21,22,29,28
 14,22,23,30,29
 15,23,24,25,30
 16,28,29,31,27
 17,29,30,32,31
 18,30,25,26,32
 19,27,31,2,1
 20,31,32,3,2
** ... 531 like lines cut
*NSET, NSET=GZMAX, GENERATE
 116889, 117009, 1
 117340, 117504, 1
*NSET, NSET=GFIX, GENERATE
 22, 34, 1
 131, 200, 1
 303, 336, 1
 2581, 2592, 1
 3420, 3431, 1
 3972, 4014, 1
 4287, 4297, 1
 4386, 4462, 1
*NSET, NSET=GXMIN_WIRE, GENERATE
 59326, 59326, 1
 59343, 59345, 1
 59358, 59358, 1
 59372, 59377, 1
 59447, 59447, 1
 59464, 59466, 1
 59479, 59479, 1
 59493, 59498, 1
 59568, 59568, 1
 59585, 59587, 1
 59600, 59600, 1
 59614, 59619, 1
 59689, 59689, 1
 59706, 59708, 1
 59721, 59721, 1
 59735, 59740, 1
 59810, 59810, 1
 59827, 59829, 1
 59842, 59842, 1
 59856, 59861, 1
** ... 796 like lines cut
*NSET, NSET=GYMIN_WIRE, GENERATE
 59158, 59159, 1
 59358, 59365, 1
 59424, 59425, 1
 59479, 59486, 1
 59535, 59535, 1
 59545, 59546, 1
 59600, 59607, 1
 59656, 59656, 1
 59666, 59667, 1
 59721, 59728, 1
 59777, 59777, 1
 59787, 59788, 1
 59842, 59849, 1
 59898, 59898, 1
 59908, 59909, 1
 59963, 59970, 1
 60019, 60019, 1
 60029, 60030, 1
 60084, 60091, 1
 60140, 60140, 1
** ... 592 like lines cut
*NSET, NSET=GXMIN_COVER, GENERATE
 59323, 59325, 1
 83809, 83811, 1
 83974, 83976, 1
 84139, 84141, 1
 84304, 84306, 1
 84469, 84471, 1
 84634, 84636, 1
 84799, 84801, 1
 84964, 84966, 1
 85129, 85131, 1
 85294, 85296, 1
 85459, 85461, 1
 85624, 85626, 1
 85789, 85791, 1
 85954, 85956, 1
 86119, 86121, 1
 86284, 86286, 1
 86449, 86451, 1
 86614, 86616, 1
 86779, 86781, 1
** ... 184 like lines cut
*NSET, NSET=GYMIN_COVER, GENERATE
 59158, 59163, 1
 83647, 83649, 1
 83812, 83814, 1
 83977, 83979, 1
 84142, 84144, 1
 84307, 84309, 1
 84472, 84474, 1
 84637, 84639, 1
 84802, 84804, 1
 84967, 84969, 1
 85132, 85134, 1
 85297, 85299, 1
 85462, 85464, 1
 85627, 85629, 1
 85792, 85794, 1
 85957, 85959, 1
 86122, 86124, 1
 86287, 86289, 1
 86452, 86454, 1
 86617, 86619, 1
** ... 184 like lines cut
*ELSET, ELSET=OUT_PLT, GENERATE
 1, 551, 1
*material, name=M1
*elastic
 1., 0.3
*shell section, elset=pévéåå[ég_évéçépéeéb, material=M1
 1.
