*MATERIAL, NAME=mat_PI_20do
*ELASTIC, TYPE=ISOTROPIC
 2800., 0.30, 0.
*plastic
40, 0
65, 0.005
90, 0.02
115, 0.04
150, 0.1
180, 0.2
210, 0.3
270, 0.4
360, 0.5
480, 0.6
620, 0.7
5000, 3.
*density
   1.0e-9,
*specific heat
   100e6
*conductivity
  10e-0, 30
***** heat shrink parameter
*expansion
  100e-6,         20
**********************************************
*MATERIAL, NAME=mat_cu
*ELASTIC, TYPE=ISOTROPIC
     100e3,      0.33,        0.
**
*plastic
 1.27E+02, 0.00E+00
 1.47E+02, 5.00E-04
 1.53E+02, 1.00E-03
 1.61E+02, 2.00E-03
 1.67E+02, 3.00E-03
 1.72E+02, 4.00E-03
 1.76E+02, 5.00E-03
 1.84E+02, 7.30E-03
 1.99E+02, 1.28E-02
 2.27E+02, 2.94E-02
 2.36E+02, 3.68E-02
 2.55E+02, 5.39E-02
 2.64E+02, 6.46E-02
 2.90E+02, 1.00E-01
 3.42E+02, 2.00E-01
 3.80E+02, 3.00E-01
 4.11E+02, 4.00E-01
 5.37E+02, 1.00E+00
 7.63E+02, 3.00E+00
 1.02E+03, 7.00E+00
 1.16E+03, 1.00E+01
** 1.3E+02, 0.0E+00
** 1.6E+02, 5.0E-04
** 1.7E+02, 1.0E-03
** 1.7E+02, 2.0E-03
** 1.8E+02, 3.0E-03
** 1.8E+02, 4.0E-03
** 1.8E+02, 5.0E-03
** 1.9E+02, 7.3E-03
** 2.0E+02, 1.3E-02
** 2.1E+02, 2.9E-02
** 2.1E+02, 3.7E-02
** 2.2E+02, 5.4E-02
** 2.2E+02, 6.5E-02
** 2.3E+02, 1.0E-01
** 2.5E+02, 2.0E-01
** 2.6E+02, 4.0E-01
** 2.9E+02, 1.0E+00
** 3.3E+02, 3.0E+00
** 3.7E+02, 7.0E+00
** 3.9E+02, 1.0E+01
*DENSITY
   8.90E-9
**
**********************************************