*material, name=Mtest1
*elastic
 100.e3, 0.3